LAMMPS (22 Jul 2025 - Update 3)
# ------------------------------------------------------------
# MgH2 dehydrogenation demo using ReaxFF (Mg/O/H)
# ------------------------------------------------------------

units           real
atom_style      charge
boundary        p p p

read_data       data.mgh2
Reading data file ...
  orthogonal box = (0 0 0) to (10 10 10)
  reading atoms ...
  3 atoms

# --- ReaxFF setup ---
pair_style      reaxff NULL
pair_coeff      * * ../potentials/reaxff/ffield.reax.mgoh H O Mg

fix             1 all qeq/reaxff 1 0.0 10.0 1e-6 reaxff

neighbor        2.0 bin
neigh_modify    every 1 delay 0 check yes

# --- Temperature ramp (dehydrogenation) ---
velocity        all create 300.0 12345 mom yes rot yes dist gaussian

fix             2 all nvt temp 300.0 1200.0 200.0

# --- Output ---
thermo          200
thermo_style    custom step temp pe etotal press
dump            1 all custom 500 dump.dehydrogenation id type x y z q

timestep        0.25
run             30000

CITE-CITE-CITE-CITE-CITE-CITE-CITE-CITE-CITE-CITE-CITE-CITE-CITE

Your simulation uses code contributions which should be cited:

- pair reaxff command: doi:10.1016/j.parco.2011.08.005

@Article{Aktulga12,
 author = {H. M. Aktulga and J. C. Fogarty and S. A. Pandit and A. Y. Grama},
 title = {Parallel Reactive Molecular Dynamics: {N}umerical Methods and Algorithmic Techniques},
 journal = {Parallel Computing},
 year =    2012,
 volume =  38,
 number =  {4--5},
 pages =   {245--259}
}

- fix qeq/reaxff command: doi:10.1016/j.parco.2011.08.005

@Article{Aktulga12,
 author = {H. M. Aktulga and J. C. Fogarty and S. A. Pandit and A. Y. Grama},
 title = {Parallel Reactive Molecular Dynamics: {N}umerical Methods and Algorithmic Techniques},
 journal = {Parallel Computing},
 year =    2012,
 volume =  38,
 pages =   {245--259}
}

CITE-CITE-CITE-CITE-CITE-CITE-CITE-CITE-CITE-CITE-CITE-CITE-CITE

Step          Temp          PotEng         TotEng         Press
0   300           -154.86783     -153.07935      459.01995
Averages over the last 76 of 151 rows, steps 15000 to 30000:
Temp PotEng TotEng Press
865.835 -150.503 -145.341 2.20776
Loop time of 0.849618 on 1 procs for 30000 steps with 3 atoms

# ------------------------------------------------------------
