LAMMPS (22 Jul 2025 - Update 3)
# ------------------------------------------------------------
# Mg hydrogenation demo using ReaxFF (Mg/O/H)
# ------------------------------------------------------------

units           real
atom_style      charge
boundary        p p p

# --- Create simulation box ---
lattice         hcp 3.21
Lattice spacing in x,y,z = 3.21 5.5598831 5.241908
region          box block 0 10 0 10 0 6
create_box      3 box
Created orthogonal box = (0 0 0) to (32.1 55.598831 31.451448)

# --- Create Mg slab ---
create_atoms    3 region box
Created 2400 atoms

# --- Create hydrogen atoms above slab ---
region          hgas block 0 10 0 10 6 10
create_atoms    1 random 200 12345 hgas
Created 0 atoms

# --- Masses (required but ignored by ReaxFF energetics) ---
mass 1 1.008
mass 2 15.999
mass 3 24.305

# --- ReaxFF setup ---
pair_style      reaxff NULL
pair_coeff      * * ../potentials/reaxff/ffield.reax.mgoh H O Mg

fix             1 all qeq/reaxff 1 0.0 10.0 1e-6 reaxff

# --- Neighbor settings ---
neighbor        2.0 bin
neigh_modify    every 1 delay 0 check yes

# --- Initialization ---
velocity        all create 800.0 4928459 mom yes rot yes dist gaussian

# --- Thermostat ---
fix             2 all nvt temp 800.0 800.0 100.0

# --- Output ---
thermo          200
thermo_style    custom step temp pe ke etotal press
dump            1 all custom 500 dump.hydrogenation id type x y z q

# --- Run ---
timestep        0.25
run             20000

CITE-CITE-CITE-CITE-CITE-CITE-CITE-CITE-CITE-CITE-CITE-CITE-CITE

Your simulation uses code contributions which should be cited:

- pair reaxff command: doi:10.1016/j.parco.2011.08.005

@Article{Aktulga12,
 author = {H. M. Aktulga and J. C. Fogarty and S. A. Pandit and A. Y. Grama},
 title = {Parallel Reactive Molecular Dynamics: {N}umerical Methods and Algorithmic Techniques},
 journal = {Parallel Computing},
 year =    2012,
 volume =  38,
 number =  {4--5},
 pages =   {245--259}
}

- fix qeq/reaxff command: doi:10.1016/j.parco.2011.08.005

@Article{Aktulga12,
 author = {H. M. Aktulga and J. C. Fogarty and S. A. Pandit and A. Y. Grama},
 title = {Parallel Reactive Molecular Dynamics: {N}umerical Methods and Algorithmic Techniques},
 journal = {Parallel Computing},
 year =    2012,
 volume =  38,
 pages =   {245--259}
}

CITE-CITE-CITE-CITE-CITE-CITE-CITE-CITE-CITE-CITE-CITE-CITE-CITE

Step          Temp          PotEng         KinEng         TotEng         Press
0   800           -81025.438      5720.7706     -75304.668     -86730.802
Averages over the last 51 of 101 rows, steps 10000 to 20000:
Temp PotEng KinEng TotEng Press
798.35 -74800 5708.97 -69091 -41817.9
Loop time of 3328.53 on 1 procs for 20000 steps with 2400 atoms

# ------------------------------------------------------------
